/*--------------------------------*- C++ -*----------------------------------*\
| =========                 |                                                 |
| \\      /  F ield         | OpenFOAM: The Open Source CFD Toolbox           |
|  \\    /   O peration     | Version:  5                                     |
|   \\  /    A nd           | Web:      www.OpenFOAM.org                      |
|    \\/     M anipulation  |                                                 |
\*---------------------------------------------------------------------------*/
FoamFile
{
    version     2.0;
    format      ascii;
    class       volScalarField;
    location    "0";
    object      alphat;
}
// * * * * * * * * * * * * * * * * * * * * * * * * * * * * * * * * * * * * * //

dimensions      [1 -1 -1 0 0 0 0];

#include        "include/coeffs"
internalField   $alphat0;

boundaryField
{

  #include      "include/sidesInletOutlet"


  ground
  {
    type        compressible::alphatWallFunction;
    Prt         0.85;
    value       $internalField;
  }

  container
  {
    type        compressible::alphatWallFunction;
    Prt         0.85;
    value       $internalField;
  }

  inlet
  {
    type        fixedValue;
    value       $alphatJet;
  }

  base
  {
    type        zeroGradient;
  }

}


// ************************************************************************* //
