/*--------------------------------*- C++ -*----------------------------------*\
| =========                 |                                                 |
| \\      /  F ield         | OpenFOAM: The Open Source CFD Toolbox           |
|  \\    /   O peration     | Version:  5                                     |
|   \\  /    A nd           | Web:      www.OpenFOAM.org                      |
|    \\/     M anipulation  |                                                 |
\*---------------------------------------------------------------------------*/
FoamFile
{
    version     2.0;
    format      ascii;
    class       volScalarField;
    location    "0";
    object      H2;
}
// * * * * * * * * * * * * * * * * * * * * * * * * * * * * * * * * * * * * * //

dimensions      [0 0 0 0 0 0 0];

#include        "include/coeffs"
internalField   $H20;

boundaryField
{

  "side.*"
  {
    type        inletOutlet;
    inletValue  uniform 0;
  }

  ground
  {
    type        zeroGradient;
  }

  container
  {
    type        zeroGradient;
  }

  base
  {
    type        zeroGradient;
  }

  inlet
  {
    type        fixedValue;
    value       $H2Jet;
  }

}

// ************************************************************************* //
