/*--------------------------------*- C++ -*----------------------------------*\
| =========                 |                                                 |
| \\      /  F ield         | OpenFOAM: The Open Source CFD Toolbox           |
|  \\    /   O peration     | Version:  5                                     |
|   \\  /    A nd           | Web:      www.OpenFOAM.org                      |
|    \\/     M anipulation  |                                                 |
\*---------------------------------------------------------------------------*/
FoamFile
{
    version     2.0;
    format      ascii;
    class       volScalarField;
    location    "0";
    object      O2;
}
// * * * * * * * * * * * * * * * * * * * * * * * * * * * * * * * * * * * * * //

dimensions      [0 0 0 0 0 0 0];

internalField   uniform 0.21;

boundaryField
{
    inlet
    {
        type            fixedValue;
        value           uniform 0.0;
    }
      "side.*"
    {
        type            inletOutlet;
        inletValue      uniform 0.21;
        value           uniform 0.21;
    }
    "container.*|base|ground"
    {
        type            zeroGradient;
    }
}


// ************************************************************************* //
