/*--------------------------------*- C++ -*----------------------------------*\
| =========                 |                                                 |
| \\      /  F ield         | OpenFOAM: The Open Source CFD Toolbox           |
|  \\    /   O peration     | Version:  5                                     |
|   \\  /    A nd           | Web:      www.OpenFOAM.org                      |
|    \\/     M anipulation  |                                                 |
\*---------------------------------------------------------------------------*/
FoamFile
{
    version     2.0;
    format      ascii;
    class       volVectorField;
    location    "0";
    object      U;
}
// * * * * * * * * * * * * * * * * * * * * * * * * * * * * * * * * * * * * * //

dimensions      [0 1 -1 0 0 0 0];

#include        "include/coeffs"
internalField   $U0;


boundaryField
{

  "side.*"
  {
    type            pressureInletOutletVelocity;
    value           uniform (0 0 0);
  }


  container
  {
    type        noSlip;
  }

  ground
  {
    type        noSlip;
  }

  base
  {
    type        noSlip;
  }


  inlet
  {
    type            pressureInletVelocity;
    value           uniform (0 0 0);
  }

  // inlet
  // {
  //   type        fixedValue;
  //   value       $UJet;
  // }

}

// ************************************************************************* //
