/*--------------------------------*- C++ -*----------------------------------*\
| =========                 |                                                 |
| \\      /  F ield         | OpenFOAM: The Open Source CFD Toolbox           |
|  \\    /   O peration     | Version:  5                                     |
|   \\  /    A nd           | Web:      www.OpenFOAM.org                      |
|    \\/     M anipulation  |                                                 |
\*---------------------------------------------------------------------------*/
FoamFile
{
    version     2.0;
    format      ascii;
    class       dictionary;
    object      blockMeshDict;
}
// * * * * * * * * * * * * * * * * * * * * * * * * * * * * * * * * * * * * * //

x_low   -7.605;
x_upp   9.955;

y_low   0;
y_upp   4.46;

z_low   -0.305;
z_upp   12.5;



res 25;
convertToMeters 1;

vertices
(
    ( $x_low  $y_low  $z_low )	 // 0
    ( $x_upp  $y_low  $z_low )   // 1
    ( $x_upp  $y_upp  $z_low )	 // 2
    ( $x_low  $y_upp  $z_low )	 // 3
    ( $x_low  $y_low  $z_upp )   // 4
    ( $x_upp  $y_low  $z_upp )   // 5
    ( $x_upp  $y_upp  $z_upp )   // 6
    ( $x_low  $y_upp  $z_upp )   // 7
);


blocks
(
  hex (0 1 2 3 4 5 6 7) (64 16 46) simpleGrading (1 1 1)
);


edges
(
);

boundary
(
  side_x_minus
  {
    type patch;
      faces
      (
          (0 4 7 3)
      );
  }
  side_x_plus
  {
    type patch;
    faces
    (
        (1 2 6 5)
    );
  }

  side_z_minus
  {
    type patch;
    faces
    (
        (0 3 2 1)
    );
  }
  side_z_plus
  {
    type patch;
    faces
    (
        (4 5 6 7)
    );
  }
  side_y_plus
  {
    type patch;
    faces
    (
        (2 3 7 6)
    );
  }
  ground
  {
      type wall;
      faces
      (
          (0 1 5 4)
      );
  }
);

mergePatchPairs
(
);
