/*--------------------------------*- C++ -*----------------------------------*\
| =========                 |                                                 |
| \\      /  F ield         | OpenFOAM: The Open Source CFD Toolbox           |
|  \\    /   O peration     | Version:  5.0                                   |
|   \\  /    A nd           | Web:      www.OpenFOAM.org                      |
|    \\/     M anipulation  |                                                 |
\*---------------------------------------------------------------------------*/
FoamFile
{
    version     2.0;
    format      ascii;
    class       featureEdgeMesh;
    location    "constant/triSurface";
    object      container.eMesh;
}
// * * * * * * * * * * * * * * * * * * * * * * * * * * * * * * * * * * * * * //


// points:

168
(
(1013.64 839.09 7478.14)
(1013.03 839.09 7476.86)
(989.891 3328.29 7467.78)
(991.253 3328.29 7467.36)
(991.253 839.09 7467.36)
(989.891 839.09 7467.78)
(1013.03 3328.29 7476.86)
(1013.64 3328.29 7478.14)
(988.565 3328.29 7468.3)
(1012.31 839.09 7475.63)
(988.565 839.09 7468.3)
(1012.31 3328.29 7475.63)
(987.281 839.09 7468.92)
(987.281 3328.29 7468.92)
(1011.51 839.09 7474.45)
(1009.65 839.09 7499.23)
(1010.62 839.09 7498.19)
(1011.51 3328.29 7474.45)
(1010.62 3328.29 7498.19)
(1009.65 3328.29 7499.23)
(986.048 839.09 7469.63)
(1010.62 839.09 7473.34)
(986.048 3328.29 7469.63)
(1010.62 3328.29 7473.34)
(1011.51 839.09 7497.07)
(1011.51 3328.29 7497.07)
(984.871 839.09 7470.43)
(1009.65 839.09 7472.29)
(984.871 3328.29 7470.43)
(1009.65 3328.29 7472.29)
(1012.31 839.09 7495.9)
(983.757 839.09 7471.32)
(983.757 3328.29 7471.32)
(1012.31 3328.29 7495.9)
(1008.61 839.09 7471.32)
(982.713 3328.29 7472.29)
(982.713 839.09 7472.29)
(1008.61 3328.29 7471.32)
(1013.03 839.09 7494.66)
(1013.03 3328.29 7494.66)
(1007.5 839.09 7470.43)
(1007.5 3328.29 7470.43)
(1013.64 839.09 7493.38)
(1013.64 3328.29 7493.38)
(1006.32 839.09 7469.63)
(1006.32 3328.29 7469.63)
(1014.16 839.09 7492.05)
(1014.16 3328.29 7492.05)
(1005.08 839.09 7468.92)
(1005.08 3328.29 7468.92)
(1014.58 839.09 7490.69)
(1014.58 3328.29 7490.69)
(1003.8 839.09 7468.3)
(1003.8 3328.29 7468.3)
(1014.9 839.09 7489.3)
(1014.9 3328.29 7489.3)
(1002.47 839.09 7467.78)
(1002.47 3328.29 7467.78)
(1015.11 839.09 7487.9)
(1015.11 3328.29 7487.9)
(1001.11 3328.29 7467.36)
(1001.11 839.09 7467.36)
(1015.22 839.09 7486.47)
(1015.22 3328.29 7486.47)
(999.725 3328.29 7467.04)
(999.725 839.09 7467.04)
(1015.22 839.09 7485.05)
(1015.22 3328.29 7485.05)
(998.316 3328.29 7466.83)
(998.316 839.09 7466.83)
(1015.11 839.09 7483.63)
(1015.11 3328.29 7483.63)
(996.895 3328.29 7466.73)
(996.895 839.09 7466.73)
(1014.9 839.09 7482.22)
(1014.9 3328.29 7482.22)
(995.471 3328.29 7466.73)
(995.471 839.09 7466.73)
(1014.58 839.09 7480.83)
(1014.58 3328.29 7480.83)
(994.05 3328.29 7466.83)
(994.05 839.09 7466.83)
(1014.16 839.09 7479.47)
(1014.16 3328.29 7479.47)
(992.641 3328.29 7467.04)
(992.641 839.09 7467.04)
(978.722 839.09 7493.38)
(979.341 839.09 7494.66)
(1002.47 3328.29 7503.74)
(1001.11 3328.29 7504.16)
(1001.11 839.09 7504.16)
(1002.47 839.09 7503.74)
(979.341 3328.29 7494.66)
(978.722 3328.29 7493.38)
(1003.8 3328.29 7503.22)
(980.053 839.09 7495.9)
(1003.8 839.09 7503.22)
(980.053 3328.29 7495.9)
(1005.08 839.09 7502.6)
(1005.08 3328.29 7502.6)
(980.855 839.09 7497.07)
(981.744 3328.29 7473.34)
(980.855 3328.29 7497.07)
(981.744 839.09 7473.34)
(1006.32 839.09 7501.89)
(981.744 839.09 7498.19)
(1006.32 3328.29 7501.89)
(981.744 3328.29 7498.19)
(980.855 839.09 7474.45)
(980.855 3328.29 7474.45)
(1007.5 839.09 7501.09)
(982.713 839.09 7499.23)
(1007.5 3328.29 7501.09)
(982.713 3328.29 7499.23)
(980.053 839.09 7475.63)
(1008.61 839.09 7500.2)
(1008.61 3328.29 7500.2)
(980.053 3328.29 7475.63)
(983.757 839.09 7500.2)
(983.757 3328.29 7500.2)
(979.341 839.09 7476.86)
(979.341 3328.29 7476.86)
(984.871 839.09 7501.09)
(984.871 3328.29 7501.09)
(978.722 839.09 7478.14)
(978.722 3328.29 7478.14)
(986.048 839.09 7501.89)
(986.048 3328.29 7501.89)
(978.202 839.09 7479.47)
(978.202 3328.29 7479.47)
(987.281 839.09 7502.6)
(987.281 3328.29 7502.6)
(977.782 839.09 7480.83)
(977.782 3328.29 7480.83)
(988.565 839.09 7503.22)
(988.565 3328.29 7503.22)
(977.465 839.09 7482.22)
(977.465 3328.29 7482.22)
(989.891 839.09 7503.74)
(989.891 3328.29 7503.74)
(977.253 839.09 7483.63)
(977.253 3328.29 7483.63)
(991.253 3328.29 7504.16)
(991.253 839.09 7504.16)
(977.146 839.09 7485.05)
(977.146 3328.29 7485.05)
(992.641 3328.29 7504.48)
(992.641 839.09 7504.48)
(977.146 839.09 7486.47)
(977.146 3328.29 7486.47)
(994.05 3328.29 7504.69)
(994.05 839.09 7504.69)
(977.253 839.09 7487.9)
(977.253 3328.29 7487.9)
(995.471 3328.29 7504.8)
(995.471 839.09 7504.8)
(977.465 839.09 7489.3)
(977.465 3328.29 7489.3)
(996.895 3328.29 7504.8)
(996.895 839.09 7504.8)
(977.782 839.09 7490.69)
(977.782 3328.29 7490.69)
(998.316 3328.29 7504.69)
(998.316 839.09 7504.69)
(978.202 839.09 7492.05)
(978.202 3328.29 7492.05)
(999.725 3328.29 7504.48)
(999.725 839.09 7504.48)
)


// edges:

168
(
(0 1)
(2 3)
(4 5)
(6 7)
(8 2)
(1 9)
(5 10)
(11 6)
(10 12)
(13 8)
(9 14)
(15 16)
(17 11)
(18 19)
(12 20)
(14 21)
(22 13)
(23 17)
(16 24)
(25 18)
(20 26)
(21 27)
(28 22)
(29 23)
(24 30)
(26 31)
(32 28)
(33 25)
(27 34)
(35 32)
(31 36)
(37 29)
(30 38)
(39 33)
(34 40)
(41 37)
(38 42)
(43 39)
(40 44)
(45 41)
(42 46)
(47 43)
(44 48)
(49 45)
(46 50)
(51 47)
(48 52)
(53 49)
(50 54)
(55 51)
(52 56)
(57 53)
(54 58)
(59 55)
(60 57)
(56 61)
(58 62)
(63 59)
(64 60)
(61 65)
(62 66)
(67 63)
(68 64)
(65 69)
(66 70)
(71 67)
(72 68)
(69 73)
(70 74)
(75 71)
(76 72)
(73 77)
(74 78)
(79 75)
(80 76)
(77 81)
(78 82)
(83 79)
(84 80)
(81 85)
(82 0)
(3 84)
(7 83)
(85 4)
(86 87)
(88 89)
(90 91)
(92 93)
(94 88)
(87 95)
(91 96)
(97 92)
(96 98)
(99 94)
(95 100)
(101 35)
(102 97)
(36 103)
(98 104)
(100 105)
(106 99)
(107 102)
(103 108)
(109 101)
(104 110)
(105 111)
(112 106)
(113 107)
(108 114)
(110 115)
(116 112)
(117 109)
(111 118)
(19 116)
(115 15)
(119 113)
(114 120)
(121 117)
(118 122)
(123 119)
(120 124)
(125 121)
(122 126)
(127 123)
(124 128)
(129 125)
(126 130)
(131 127)
(128 132)
(133 129)
(130 134)
(135 131)
(132 136)
(137 133)
(134 138)
(139 135)
(136 140)
(141 137)
(142 139)
(138 143)
(140 144)
(145 141)
(146 142)
(143 147)
(144 148)
(149 145)
(150 146)
(147 151)
(148 152)
(153 149)
(154 150)
(151 155)
(152 156)
(157 153)
(158 154)
(155 159)
(156 160)
(161 157)
(162 158)
(159 163)
(160 164)
(165 161)
(166 162)
(163 167)
(164 86)
(89 166)
(93 165)
(167 90)
)

// * * * * * * * * * * * * * * * * * * * * * * * * * * * * * * * * * * * * * //


// ************************************************************************* //
